/*--------------------------------*- C++ -*----------------------------------*\
  =========                 |
  \\      /  F ield         | OpenFOAM: The Open Source CFD Toolbox
   \\    /   O peration     | Website:  https://openfoam.org
    \\  /    A nd           | Version:  9
     \\/     M anipulation  |
\*---------------------------------------------------------------------------*/
FoamFile
{
    format      ascii;
    class       volSymmTensorField;
    location    "0";
    object      tau;
}
// * * * * * * * * * * * * * * * * * * * * * * * * * * * * * * * * * * * * * //

dimensions      [1 -1 -2 0 0 0 0];

internalField   uniform (0 0 0 0 0 0);

boundaryField
{
    rbc
    {
        type            linearExtrapolation;
        useRegression   0;
        value           uniform (0 0 0 0 0 0);
    }
    rbc2
    {
        type            linearExtrapolation;
        useRegression   0;
        value           uniform (0 0 0 0 0 0);
    }
    outlet
    {
        type            zeroGradient;
    }
    inlet
    {
        /* type            fixedValue;
        value           uniform (0 0 0 0 0 0); */
        type            linearExtrapolation;
        useRegression   0;
        value           uniform (0 0 0 0 0 0);
    }
    back
    {
        type            wedge;
    }
    wall
    {
        type            linearExtrapolation;
        useRegression   0;
        value           uniform (0 0 0 0 0 0);
    }
    front
    {
        type            wedge;
    }
}


// ************************************************************************* //
